tests/src/test/resources/files/cases/0_import_export/network_12nodes_ultranet_v2.uct
##C 2007.05.01
##N
##ZBE
BBE1AA1  BE1          0 2 400.00 2500.00 0.00000 -1500.0 0.00000 9000.00 -9000.0 9000.00 -9000.0
BBE2AA1  BE2          0 2 400.00 1000.00 0.00000 -3000.0 0.00000 9000.00 -9000.0 9000.00 -9000.0
BBE3AA1  BE3          0 2 400.00 1500.00 0.00000 -2500.0 0.00000 9000.00 -9000.0 9000.00 -9000.0
##ZDE
DDE1AA1  DE1          0 2 400.00 3500.00 0.00000 -2500.0 0.00000 9000.00 -9000.0 9000.00 -9000.0
DDE2AA1  DE2          0 2 400.00 3000.00 0.00000 -2000.0 0.00000 9000.00 -9000.0 9000.00 -9000.0
DDE3AA1  DE3          0 2 400.00 2000.00 0.00000 -1500.0 0.00000 9000.00 -9000.0 9000.00 -9000.0
D4AAA21B              0 2  400.0       0       0       0       0    1000   -1000     500    -500
D4AAA11B              0 2  400.0       0       0       0       0    1000   -1000     500    -500
D4ZZZX14              0 0              0       0       0       0
D4ZZZX13              0 0              0       0       0       0
D4ZZZX12              0 0              0       0       0       0
D4ZZZX11              0 0              0       0       0       0
D7AAA21A              0 2  400.0       0       0       0       0    1000   -1000     500    -500
D7AAA11A              0 2  400.0       0       0       0       0    1000   -1000     500    -500
D7BBBX14              0 0              0       0       0       0
D7BBBX13              0 0              0       0       0       0
D7654311              0 0        0.00000 0.00000 0.00000 0.00000
##ZFR
FFR1AA1  FR1          0 2 400.00 1000.00 0.00000 -2000.0 0.00000 9000.00 -9000.0 9000.00 -9000.0
FFR2AA1  FR2          0 2 400.00 3500.00 0.00000 -2000.0 0.00000 9000.00 -9000.0 9000.00 -9000.0
FFR3AA1  FR3          0 2 400.00 1500.00 0.00000 -3000.0 0.00000 9000.00 -9000.0 9000.00 -9000.0
##ZNL
NNL1AA1  NL1          0 2 400.00 1000.00 0.00000 -1500.0 0.00000 9000.00 -9000.0 9000.00 -9000.0
NNL2AA1  NL2          0 2 400.00 1000.00 0.00000 -500.00 0.00000 9000.00 -9000.0 9000.00 -9000.0
NNL3AA1  NL3          0 2 400.00 2500.00 0.00000 -2000.0 0.00000 9000.00 -9000.0 9000.00 -9000.0
##L
BBE1AA1  BBE2AA1  1 0 0.0000 10.000 0.000000   5000
BBE1AA1  BBE3AA1  1 0 0.0000 10.000 0.000000   5000
FFR1AA1  FFR2AA1  1 0 0.0000 10.000 0.000000   5000
FFR1AA1  FFR3AA1  1 0 0.0000 10.000 0.000000   5000
FFR2AA1  FFR3AA1  1 0 0.0000 10.000 0.000000   5000
DDE1AA1  DDE2AA1  1 0 0.0000 10.000 0.000000   5000
DDE1AA1  DDE3AA1  1 0 0.0000 10.000 0.000000   5000
DDE2AA1  DDE3AA1  1 0 0.0000 10.000 0.000000   5000
NNL1AA1  NNL2AA1  1 0 0.0000 10.000 0.000000   5000
NNL1AA1  NNL3AA1  1 0 0.0000 10.000 0.000000   5000
NNL2AA1  NNL3AA1  1 0 0.0000 10.000 0.000000   5000
FFR2AA1  DDE3AA1  1 0 0.0000 10.000 0.000000   5000 CB1
DDE2AA1  NNL3AA1  1 0 0.0000 10.000 0.000000   5000
NNL2AA1  BBE3AA1  1 0 0.0000 10.000 0.000000   5000
BBE2AA1  FFR3AA1  1 0 0.0000 10.000 0.000000   5000 CB0
D7BBBX13 D7AAA11A 1 0 0.0030 0.5000        0   3150 UNET P1 OSTR
D7BBBX14 D7AAA21A 1 0 0.0030 0.5000        0   3150 UNET P2 OSTR
D7BBBX13 D7654311 1 0 0.0030 0.5000        0   3150
D7BBBX14 D7654311 1 0 0.0030 0.5000        0   3150
D4ZZZX11 FFR3AA1  1 0 0.0100 0.1300 2.399860   3600 PH1GNPHI
D4ZZZX12 FFR3AA1  2 0 0.0100 0.1300 2.399860   3600 PH1SWPHI
D4ZZZX13 D4AAA11B 1 0 0.0030 0.5000        0   3150 UNET P1 PHIL
D4ZZZX14 D4AAA21B 1 0 0.0030 0.5000        0   3150 UNET P2 PHIL
D4ZZZX13 D4ZZZX11 1 0 0.0030 0.5000        0   3150
D4ZZZX14 D4ZZZX12 1 0 0.0030 0.5000        0   3150
D7654311 BBE2AA1  1 0 0.0030 0.5000        0   3150
##T
BBE2AA1  BBE3AA1  1 0 400.0 400.0 1000. 0.0000 10.000 0.000000 0.0	     5000 PST
##R
BBE2AA1  BBE3AA1  1                    -0.68 90.00 16  0        SYMM
